*INCLUDE, INPUT=allinone.msh

*MATERIAL,NAME=Steel
*ELASTIC
2.9000E+07,0.3
*DENSITY
7.3500E-04

*SOLID SECTION,MATERIAL=Steel,ELSET=Eall

*BOUNDARY
BC35111,1,1,0
BC35111,2,2,0
BC35111,3,3,0

*AMPLITUDE,NAME=AMPL_CONST_EQU, EQUATION
0.5

*STEP
*BUCKLE
** number of eigenvalues, Accuracy, number of Lanczos vectors
3,0.0001, 100 

*CLOAD, AMPLITUDE=AMPL_CONST_EQU
BC122222,2,+2.0000E+01

*NODE FILE 
U,

*END STEP
