*HEADING
My job - Units: N, mm
**
** mesh generated with gmsh is translated into CalculiX
**
** gmsh T3D3 --> B32R; CPS8 --> S8R
**
*****************************************************
**        line to be modified in this file
**
*INCLUDE, INPUT=pp01_ccx.msh
*****************************************************
**
***ELSET,ELSET=Erods
**Line10,Line11,Line12,Line13
**
*NSET,NSET=q2l,GENERATE
364,382
*NSET,NSET=q4l,GENERATE
383,402
*NSET,NSET=q2r,GENERATE
442,460
*NSET,NSET=q4r,GENERATE
461,480
**
*NSET,NSET=q2lo,GENERATE
403,421
*NSET,NSET=q4lo,GENERATE
422,441
*NSET,NSET=q2up,GENERATE
325,343
*NSET,NSET=q4up,GENERATE
344,363
**
** element properties
**
*ORIENTATION,NAME=OR1
1.,0.,0.,0.,1.,0.
**
*SHELL SECTION, ELSET=reinforcement, ORIENTATION=OR1, MATERIAL=alu
*****************************************************
**        line to be modified in this file
**
2.0
**2.0
*SHELL SECTION, ELSET=plate, ORIENTATION=OR1, MATERIAL=alu
*****************************************************
**        line to be modified in this file
**
1.0
**1.0
** modified for 64 bit version
*BEAM SECTION,MATERIAL=dummy,ELSET=Line10,SECTION=RECT
0.001,0.001
0.,0.,1.
*BEAM SECTION,MATERIAL=dummy,ELSET=Line11,SECTION=RECT
0.001,0.001
0.,0.,1.
*BEAM SECTION,MATERIAL=dummy,ELSET=Line12,SECTION=RECT
0.001,0.001
0.,0.,1.
*BEAM SECTION,MATERIAL=dummy,ELSET=Line13,SECTION=RECT
0.001,0.001
0.,0.,1.
***BEAM SECTION,MATERIAL=dummy,ELSET=Erods,SECTION=RECT
**0.001,0.001
**0.,0.,1.
**
*MATERIAL,NAME=alu
*DENSITY
*****************************************************
**        line to be modified in this file
**
2.8E-9
*ELASTIC, TYPE=ISO
*****************************************************
**        line to be modified in this file
70000.0,0.3
**
**70000., 0.3
**
*MATERIAL,NAME=dummy
*DENSITY
2.8E-19
*ELASTIC, TYPE=ISO
0.0000001, 0.3
**
** homogeneous boundary conditions
**
*BOUNDARY
upper_edge, 3
lower_edge, 3
left_edge, 3
right_edge, 3
3, 1,2
1, 2
**
** Linear buckling analysis follows
**
*STEP
**edge flows Nx, Ny, Nxy
*BUCKLE, SOLVER=PASTIX
** default buckle parameters don't work here
**1,0.001,8
1
**
**
*****************************************************
**        line to be modified in this file
**
** consistent loads for quadratic elements S8R
**
*CLOAD
** Fx = Nx*b/120,,1/6,4/6,1/6--->1*Fx,2*Fx,4*Fx
q2l,1,100
q4l,1,200
2,1,50
3,1,50
1,1,-50
4,1,-50
q2r,1,-100
q4r,1,-200
**
*CLOAD
q2lo,2,133.33333333333
q4lo,2,266.66666666667
4,2,66.666666666667
3,2,66.666666666667
1,2,-66.666666666667
2,2,-66.666666666667
q2up,2,-133.33333333333
q4up,2,-266.66666666667
** Fy = Ny*a/120
**
*CLOAD
q2l,2,100
q4l,2,200
2,2,50
3,2,50
1,2,-50
4,2,-50
q2r,2,-100
q4r,2,-200
** Fxy = Nxy*b/120
**
*CLOAD
q2lo,1,133.33333333333
q4lo,1,266.66666666667
4,1,66.666666666667
3,1,66.666666666667
1,1,-66.666666666667
2,1,-66.666666666667
q2up,1,-133.33333333333
q4up,1,-266.66666666667
** Fyx = Nxy*a/120
**
**
*NODE FILE
U
*EL FILE
S
**
*END STEP
