**
** Heading +++++++++++++++++++++++++++++++++++++++++++++++++
**
*Heading
Hash: TxqOgwkY, Date: 05/12/2023, Unit system: MM_TON_S_C
**
** Nodes +++++++++++++++++++++++++++++++++++++++++++++++++++
**
*Node
1, 1.00000000E+002, 7.50000000E+001, 0.00000000E+000
2, -1.00000000E+002, 7.50000000E+001, 0.00000000E+000
3, -1.00000000E+002, -7.50000000E+001, 0.00000000E+000
4, 1.00000000E+002, -7.50000000E+001, 0.00000000E+000
5, 9.48000000E+001, 7.50000000E+001, 0.00000000E+000
6, 8.98000000E+001, 7.50000000E+001, 0.00000000E+000
7, 8.48000000E+001, 7.50000000E+001, 0.00000000E+000
8, 7.98000000E+001, 7.50000000E+001, 0.00000000E+000
9, 7.48000000E+001, 7.50000000E+001, 0.00000000E+000
10, 6.98000000E+001, 7.50000000E+001, 0.00000000E+000
11, 6.48000000E+001, 7.50000000E+001, 0.00000000E+000
12, 5.98000000E+001, 7.50000000E+001, 0.00000000E+000
13, 5.48000000E+001, 7.50000000E+001, 0.00000000E+000
14, 4.98000000E+001, 7.50000000E+001, 0.00000000E+000
15, 4.48000000E+001, 7.50000000E+001, 0.00000000E+000
16, 3.98000000E+001, 7.50000000E+001, 0.00000000E+000
17, 3.48000000E+001, 7.50000000E+001, 0.00000000E+000
18, 2.98000000E+001, 7.50000000E+001, 0.00000000E+000
19, 2.48000000E+001, 7.50000000E+001, 0.00000000E+000
20, 1.98000000E+001, 7.50000000E+001, 0.00000000E+000
** ... 3721 like lines cut
**
** Elements ++++++++++++++++++++++++++++++++++++++++++++++++
**
*Element, Type=S8, Elset=Shell_part-1
1, 1, 5, 141, 140, 1272, 1273, 1274, 1275
2, 5, 6, 142, 141, 1276, 1277, 1278, 1273
3, 6, 7, 143, 142, 1279, 1280, 1281, 1277
4, 7, 8, 144, 143, 1282, 1283, 1284, 1280
5, 8, 9, 145, 144, 1285, 1286, 1287, 1283
6, 9, 10, 146, 145, 1288, 1289, 1290, 1286
7, 10, 11, 147, 146, 1291, 1292, 1293, 1289
8, 11, 12, 148, 147, 1294, 1295, 1296, 1292
9, 12, 13, 149, 148, 1297, 1298, 1299, 1295
10, 13, 14, 150, 149, 1300, 1301, 1302, 1298
11, 14, 15, 151, 150, 1303, 1304, 1305, 1301
12, 15, 16, 152, 151, 1306, 1307, 1308, 1304
13, 16, 17, 153, 152, 1309, 1310, 1311, 1307
14, 17, 18, 154, 153, 1312, 1313, 1314, 1310
15, 18, 19, 155, 154, 1315, 1316, 1317, 1313
16, 19, 20, 156, 155, 1318, 1319, 1320, 1316
17, 20, 21, 157, 156, 1321, 1322, 1323, 1319
18, 21, 22, 158, 157, 1324, 1325, 1326, 1322
19, 22, 23, 159, 158, 1327, 1328, 1329, 1325
20, 23, 24, 160, 159, 1330, 1331, 1332, 1328
** ... 1180 like lines cut
**
** Node sets +++++++++++++++++++++++++++++++++++++++++++++++
**
*Nset, Nset=Internal_Selection-1_Displacement_rotation-1
1, 2, 3, 4, 5, 6, 7, 8, 9, 10, 11, 12, 13, 14, 15, 16, 
17, 18, 19, 20, 21, 22, 23, 24, 25, 26, 27, 28, 29, 30, 31, 32, 
33, 34, 35, 36, 37, 38, 39, 40, 41, 42, 43, 44, 45, 46, 47, 48, 
49, 50, 51, 52, 53, 54, 55, 56, 57, 58, 59, 60, 61, 62, 63, 64, 
65, 66, 67, 68, 69, 70, 71, 72, 73, 74, 75, 76, 77, 78, 79, 80, 
81, 82, 83, 84, 85, 86, 87, 88, 89, 90, 91, 92, 93, 94, 95, 96, 
97, 98, 99, 100, 101, 102, 103, 104, 105, 106, 107, 108, 109, 110, 111, 112, 
113, 114, 115, 116, 117, 118, 119, 120, 121, 122, 123, 124, 125, 126, 127, 128, 
129, 130, 131, 132, 133, 134, 135, 136, 137, 138, 139, 140, 1272, 1275, 1276, 1279, 
1282, 1285, 1288, 1291, 1294, 1297, 1300, 1303, 1306, 1309, 1312, 1315, 1318, 1321, 1324, 1327, 
1330, 1333, 1336, 1339, 1342, 1345, 1348, 1351, 1354, 1357, 1360, 1363, 1366, 1369, 1372, 1375, 
1378, 1381, 1384, 1387, 1390, 1391, 1393, 1396, 1399, 1402, 1405, 1408, 1411, 1414, 1417, 1420, 
1423, 1426, 1429, 1432, 1435, 1438, 1441, 1444, 1447, 1450, 1453, 1456, 1459, 1462, 1465, 1468, 
1471, 1474, 1477, 1478, 1480, 1483, 1486, 1489, 1492, 1495, 1498, 1501, 1504, 1507, 1510, 1513, 
1516, 1519, 1522, 1525, 1528, 1531, 1534, 1537, 1540, 1543, 1546, 1549, 1552, 1555, 1558, 1561, 
1564, 1567, 1570, 1573, 1576, 1579, 1582, 1585, 1588, 1591, 1594, 1595, 1597, 1600, 1603, 1606, 
1609, 1612, 1615, 1618, 1621, 1624, 1627, 1630, 1633, 1636, 1639, 1642, 1645, 1648, 1651, 1654, 
1657, 1660, 1663, 1666, 1669, 1672, 1675, 1678
*Nset, Nset=Internal_Selection-1_Displacement_rotation-2
1, 2, 5, 6, 7, 8, 9, 10, 11, 12, 13, 14, 15, 16, 17, 18, 
19, 20, 21, 22, 23, 24, 25, 26, 27, 28, 29, 30, 31, 32, 33, 34, 
35, 36, 37, 38, 39, 40, 41, 42, 43, 1272, 1276, 1279, 1282, 1285, 1288, 1291, 
1294, 1297, 1300, 1303, 1306, 1309, 1312, 1315, 1318, 1321, 1324, 1327, 1330, 1333, 1336, 1339, 
1342, 1345, 1348, 1351, 1354, 1357, 1360, 1363, 1366, 1369, 1372, 1375, 1378, 1381, 1384, 1387, 
1390
*Nset, Nset=Internal_Selection-1_Displacement_rotation-3
1, 4, 112, 113, 114, 115, 116, 117, 118, 119, 120, 121, 122, 123, 124, 125, 
126, 127, 128, 129, 130, 131, 132, 133, 134, 135, 136, 137, 138, 139, 140, 1275, 
1595, 1597, 1600, 1603, 1606, 1609, 1612, 1615, 1618, 1621, 1624, 1627, 1630, 1633, 1636, 1639, 
1642, 1645, 1648, 1651, 1654, 1657, 1660, 1663, 1666, 1669, 1672, 1675, 1678
*Nset, Nset=Internal-1_Internal_Selection-1_Normal_shell_edge_load-1
2, 3, 4, 44, 45, 46, 47, 48, 49, 50, 51, 52, 53, 54, 55, 56, 
57, 58, 59, 60, 61, 62, 63, 64, 65, 66, 67, 68, 69, 70, 71, 72, 
73, 74, 75, 76, 77, 78, 79, 80, 81, 82, 83, 84, 85, 86, 87, 88, 
89, 90, 91, 92, 93, 94, 95, 96, 97, 98, 99, 100, 101, 102, 103, 104, 
105, 106, 107, 108, 109, 110, 111, 1391, 1393, 1396, 1399, 1402, 1405, 1408, 1411, 1414, 
1417, 1420, 1423, 1426, 1429, 1432, 1435, 1438, 1441, 1444, 1447, 1450, 1453, 1456, 1459, 1462, 
1465, 1468, 1471, 1474, 1477, 1478, 1480, 1483, 1486, 1489, 1492, 1495, 1498, 1501, 1504, 1507, 
1510, 1513, 1516, 1519, 1522, 1525, 1528, 1531, 1534, 1537, 1540, 1543, 1546, 1549, 1552, 1555, 
1558, 1561, 1564, 1567, 1570, 1573, 1576, 1579, 1582, 1585, 1588, 1591, 1594
**
** Element sets ++++++++++++++++++++++++++++++++++++++++++++
**
*Elset, Elset=Internal_Selection-1_Shell_section-1
1, 2, 3, 4, 5, 6, 7, 8, 9, 10, 11, 12, 13, 14, 15, 16, 
17, 18, 19, 20, 21, 22, 23, 24, 25, 26, 27, 28, 29, 30, 31, 32, 
33, 34, 35, 36, 37, 38, 39, 40, 41, 42, 43, 44, 45, 46, 47, 48, 
49, 50, 51, 52, 53, 54, 55, 56, 57, 58, 59, 60, 61, 62, 63, 64, 
65, 66, 67, 68, 69, 70, 71, 72, 73, 74, 75, 76, 77, 78, 79, 80, 
81, 82, 83, 84, 85, 86, 87, 88, 89, 90, 91, 92, 93, 94, 95, 96, 
97, 98, 99, 100, 101, 102, 103, 104, 105, 106, 107, 108, 109, 110, 111, 112, 
113, 114, 115, 116, 117, 118, 119, 120, 121, 122, 123, 124, 125, 126, 127, 128, 
129, 130, 131, 132, 133, 134, 135, 136, 137, 138, 139, 140, 141, 142, 143, 144, 
145, 146, 147, 148, 149, 150, 151, 152, 153, 154, 155, 156, 157, 158, 159, 160, 
161, 162, 163, 164, 165, 166, 167, 168, 169, 170, 171, 172, 173, 174, 175, 176, 
177, 178, 179, 180, 181, 182, 183, 184, 185, 186, 187, 188, 189, 190, 191, 192, 
193, 194, 195, 196, 197, 198, 199, 200, 201, 202, 203, 204, 205, 206, 207, 208, 
209, 210, 211, 212, 213, 214, 215, 216, 217, 218, 219, 220, 221, 222, 223, 224, 
225, 226, 227, 228, 229, 230, 231, 232, 233, 234, 235, 236, 237, 238, 239, 240, 
241, 242, 243, 244, 245, 246, 247, 248, 249, 250, 251, 252, 253, 254, 255, 256, 
257, 258, 259, 260, 261, 262, 263, 264, 265, 266, 267, 268, 269, 270, 271, 272, 
273, 274, 275, 276, 277, 278, 279, 280, 281, 282, 283, 284, 285, 286, 287, 288, 
289, 290, 291, 292, 293, 294, 295, 296, 297, 298, 299, 300, 301, 302, 303, 304, 
305, 306, 307, 308, 309, 310, 311, 312, 313, 314, 315, 316, 317, 318, 319, 320, 
** ... 55 like lines cut
*Elset, Elset=Internal-1_Internal_Selection-1_Normal_shell_edge_load-1_S4
40, 69
*Elset, Elset=Internal-1_Internal_Selection-1_Normal_shell_edge_load-1_S3
41, 42, 43, 44, 45, 46, 47, 48, 49, 50, 51, 52, 53, 54, 55, 56, 
57, 58, 59, 60, 61, 62, 63, 64, 65, 66, 67, 68, 69, 70, 71, 72, 
73, 74, 75, 76, 77, 78, 79, 80, 81, 82, 83, 84, 85, 86, 87, 88, 
89, 90, 91, 92, 93, 94, 95, 96, 97, 98, 99, 100, 101, 102, 103, 104, 
105, 106, 107, 108
**
** Surfaces ++++++++++++++++++++++++++++++++++++++++++++++++
**
*Surface, Name=Internal_Selection-1_Normal_shell_edge_load-1, Type=Element
Internal-1_Internal_Selection-1_Normal_shell_edge_load-1_S4, S4
Internal-1_Internal_Selection-1_Normal_shell_edge_load-1_S3, S3
**
** Physical constants ++++++++++++++++++++++++++++++++++++++
**
**
** Materials +++++++++++++++++++++++++++++++++++++++++++++++
**
*Material, Name=Material-1
*Elastic
200000, 0.3
**
** Sections ++++++++++++++++++++++++++++++++++++++++++++++++
**
*Shell section, Elset=Internal_Selection-1_Shell_section-1, Material=Material-1, Offset=0
4
**
** Pre-tension sections ++++++++++++++++++++++++++++++++++++
**
**
** Constraints +++++++++++++++++++++++++++++++++++++++++++++
**
**
** Surface interactions ++++++++++++++++++++++++++++++++++++
**
**
** Contact pairs +++++++++++++++++++++++++++++++++++++++++++
**
**
** Amplitudes ++++++++++++++++++++++++++++++++++++++++++++++
**
**
** Initial conditions ++++++++++++++++++++++++++++++++++++++
**
**
** Steps +++++++++++++++++++++++++++++++++++++++++++++++++++
**
**
** Step-1 ++++++++++++++++++++++++++++++++++++++++++++++++++
**
*Step
*Buckle
3, 0.01
**
** Boundary conditions +++++++++++++++++++++++++++++++++++++
**
*Boundary, op=New
** Name: Displacement_rotation-1
*Boundary
Internal_Selection-1_Displacement_rotation-1, 3, 3, 0
** Name: Displacement_rotation-2
*Boundary
Internal_Selection-1_Displacement_rotation-2, 2, 2, 0
** Name: Displacement_rotation-3
*Boundary
Internal_Selection-1_Displacement_rotation-3, 1, 1, 0
**
** Loads +++++++++++++++++++++++++++++++++++++++++++++++++++
**
*Cload, op=New
*Dload, op=New
** Name: Normal_shell_edge_load-1
*Dload
Internal-1_Internal_Selection-1_Normal_shell_edge_load-1_S4, EDNOR2, 1
Internal-1_Internal_Selection-1_Normal_shell_edge_load-1_S3, EDNOR1, 1
**
** Defined fields ++++++++++++++++++++++++++++++++++++++++++
**
**
** History outputs +++++++++++++++++++++++++++++++++++++++++
**
**
** Field outputs +++++++++++++++++++++++++++++++++++++++++++
**
*Node file
RF, U
*El file
S, E
**
** End step ++++++++++++++++++++++++++++++++++++++++++++++++
**
*End step
