**
** Material +++++++++++++++++++++++++++++++++++++++++++++++++
**
**======== Steel_S355 ========
*Material, Name=Steel_S355
*DENSITY
8500.0
*ELASTIC, TYPE=ISO
210000000000.0,0.3
**
** Nodes ++++++++++++++++++++++++++++++++++++++++++++++++++++
**
*Node, NSET = NALL
1, 0.000E+000, 0.000E+000, 0.000E+000
2, 1.000E+002, 0.000E+000, 0.000E+000
3, 1.000E+002, 1.000E+002, 0.000E+000
4, 0.000E+000, 1.000E+002, 0.000E+000
5, 0.000E+000, 0.000E+000, 1.000E+003
6, 1.000E+002, 0.000E+000, 1.000E+003
7, 1.000E+002, 1.000E+002, 1.000E+003
8, 0.000E+000, 1.000E+002, 1.000E+003
9, 5.000E+001, 0.000E+000, 0.000E+000
10, 2.500E+001, 0.000E+000, 0.000E+000
11, 7.500E+001, 0.000E+000, 0.000E+000
12, 1.000E+002, 5.000E+001, 0.000E+000
13, 1.000E+002, 2.500E+001, 0.000E+000
14, 1.000E+002, 7.500E+001, 0.000E+000
15, 5.000E+001, 1.000E+002, 0.000E+000
16, 7.500E+001, 1.000E+002, 0.000E+000
17, 2.500E+001, 1.000E+002, 0.000E+000
18, 0.000E+000, 5.000E+001, 0.000E+000
19, 0.000E+000, 7.500E+001, 0.000E+000
20, 0.000E+000, 2.500E+001, 0.000E+000
** ... 316 like lines cut
**
** Elements ++++++++++++++++++++++++++++++++++++++++++++++++
**
** wall 1
*Element, Type=S8R, Elset=Wall_1
65, 1, 21, 109, 9, 30, 118, 119, 10
66, 21, 22, 110, 109, 31, 121, 122, 118
67, 22, 23, 111, 110, 32, 124, 125, 121
68, 23, 24, 112, 111, 33, 127, 128, 124
69, 24, 25, 113, 112, 34, 130, 131, 127
70, 25, 26, 114, 113, 35, 133, 134, 130
71, 26, 27, 115, 114, 36, 136, 137, 133
72, 27, 28, 116, 115, 37, 139, 140, 136
73, 28, 29, 117, 116, 38, 142, 143, 139
74, 29, 5, 59, 117, 39, 60, 145, 142
75, 9, 109, 40, 2, 119, 147, 49, 11
76, 109, 110, 41, 40, 122, 149, 50, 147
77, 110, 111, 42, 41, 125, 151, 51, 149
78, 111, 112, 43, 42, 128, 153, 52, 151
79, 112, 113, 44, 43, 131, 155, 53, 153
80, 113, 114, 45, 44, 134, 157, 54, 155
81, 114, 115, 46, 45, 137, 159, 55, 157
82, 115, 116, 47, 46, 140, 161, 56, 159
83, 116, 117, 48, 47, 143, 163, 57, 161
84, 117, 59, 6, 48, 145, 61, 58, 163
** wall 2
*Element, Type=S8R, Elset=Wall_2
85, 2, 40, 166, 12, 49, 175, 176, 13
86, 40, 41, 167, 166, 50, 178, 179, 175
87, 41, 42, 168, 167, 51, 181, 182, 178
88, 42, 43, 169, 168, 52, 184, 185, 181
89, 43, 44, 170, 169, 53, 187, 188, 184
90, 44, 45, 171, 170, 54, 190, 191, 187
91, 45, 46, 172, 171, 55, 193, 194, 190
92, 46, 47, 173, 172, 56, 196, 197, 193
93, 47, 48, 174, 173, 57, 199, 200, 196
94, 48, 6, 81, 174, 58, 82, 202, 199
95, 12, 166, 62, 3, 176, 204, 71, 14
96, 166, 167, 63, 62, 179, 206, 72, 204
97, 167, 168, 64, 63, 182, 208, 73, 206
98, 168, 169, 65, 64, 185, 210, 74, 208
99, 169, 170, 66, 65, 188, 212, 75, 210
100, 170, 171, 67, 66, 191, 214, 76, 212
101, 171, 172, 68, 67, 194, 216, 77, 214
102, 172, 173, 69, 68, 197, 218, 78, 216
103, 173, 174, 70, 69, 200, 220, 79, 218
104, 174, 81, 7, 70, 202, 83, 80, 220
** wall 3
*Element, Type=S8R, Elset=Wall_3
105, 3, 62, 223, 15, 71, 232, 233, 16
106, 62, 63, 224, 223, 72, 235, 236, 232
107, 63, 64, 225, 224, 73, 238, 239, 235
108, 64, 65, 226, 225, 74, 241, 242, 238
109, 65, 66, 227, 226, 75, 244, 245, 241
110, 66, 67, 228, 227, 76, 247, 248, 244
111, 67, 68, 229, 228, 77, 250, 251, 247
112, 68, 69, 230, 229, 78, 253, 254, 250
113, 69, 70, 231, 230, 79, 256, 257, 253
114, 70, 7, 103, 231, 80, 104, 259, 256
115, 15, 223, 84, 4, 233, 261, 93, 17
116, 223, 224, 85, 84, 236, 263, 94, 261
117, 224, 225, 86, 85, 239, 265, 95, 263
118, 225, 226, 87, 86, 242, 267, 96, 265
119, 226, 227, 88, 87, 245, 269, 97, 267
120, 227, 228, 89, 88, 248, 271, 98, 269
121, 228, 229, 90, 89, 251, 273, 99, 271
122, 229, 230, 91, 90, 254, 275, 100, 273
123, 230, 231, 92, 91, 257, 277, 101, 275
124, 231, 103, 8, 92, 259, 105, 102, 277
** wall 4
*Element, Type=S8R, Elset=Wall_4
125, 4, 84, 280, 18, 93, 289, 290, 19
126, 84, 85, 281, 280, 94, 292, 293, 289
127, 85, 86, 282, 281, 95, 295, 296, 292
128, 86, 87, 283, 282, 96, 298, 299, 295
129, 87, 88, 284, 283, 97, 301, 302, 298
130, 88, 89, 285, 284, 98, 304, 305, 301
131, 89, 90, 286, 285, 99, 307, 308, 304
132, 90, 91, 287, 286, 100, 310, 311, 307
133, 91, 92, 288, 287, 101, 313, 314, 310
134, 92, 8, 106, 288, 102, 107, 316, 313
135, 18, 280, 21, 1, 290, 318, 30, 20
136, 280, 281, 22, 21, 293, 320, 31, 318
137, 281, 282, 23, 22, 296, 322, 32, 320
138, 282, 283, 24, 23, 299, 324, 33, 322
139, 283, 284, 25, 24, 302, 326, 34, 324
140, 284, 285, 26, 25, 305, 328, 35, 326
141, 285, 286, 27, 26, 308, 330, 36, 328
142, 286, 287, 28, 27, 311, 332, 37, 330
143, 287, 288, 29, 28, 314, 334, 38, 332
144, 288, 106, 5, 29, 316, 108, 39, 334
**
** Shell Sections +++++++++++++++++++++++++++++++++++++++++++
**
*SHELL SECTION,COMPOSITE,ELSET=Wall_1,offset=0.0
5.00,,Steel_S355
5.00,,Steel_S355
*SHELL SECTION,COMPOSITE,ELSET=Wall_2,offset=0.0
5.00,,Steel_S355
5.00,,Steel_S355
*SHELL SECTION,COMPOSITE,ELSET=Wall_3,offset=0.0
5.00,,Steel_S355
5.00,,Steel_S355
*SHELL SECTION,COMPOSITE,ELSET=Wall_4,offset=0.0
5.00,,Steel_S355
5.00,,Steel_S355
**
** Steps +++++++++++++++++++++++++++++++++++++++++++++++++++
**
*BOUNDARY
1, 1, 6, 0
2, 1, 6, 0
3, 1, 6, 0
4, 1, 6, 0
*STEP
*BUCKLE, solver=spooles
1, 0,001
*CLOAD
5, 3, -1000
6, 3, -1000
7, 3, -1000
8, 3, -1000
*NODE FILE 
U,
*END STEP
