**
** Model source:
** https://calculix.discourse.group/t/snap-fit-contact-snagging-problem/2277
**
** Generated by Mecway 24
*NODE, NSET=NALL
1,0.0133263985941,0.007498873716487,0.005
2,0.002,0.00834,0.005
3,0.002,0.015,0.005
4,0.01362443958365,0.007499452432424,0.005
5,0.01392204141984,0.007500168797185,0.005
6,0,0.00834,0.005
7,0,0.015,0.005
8,0.01422027264494,0.007499673367312,0.005
9,0.01451920361843,0.00749819567769,0.005
10,0.002,0.00666,0.005
11,0.01481865934991,0.007497283097524,0.005
12,0,0.00666,0.005
13,0.01511785342419,0.007497931923687,0.005
14,0.002,0,0.005
15,0.01541551835793,0.007499798613304,0.005
16,0,0,0.005
17,0.01987771907806,0.00834,0.005
18,0.01571166747819,0.007501252934286,0.005
19,0.01600826209599,0.007501012792363,0.005
20,0.01987771907806,0.00666,0.005
** ... 7809 like lines cut
*ELEMENT,TYPE=C3D20
1,92,138,151,93,1166,1169,1168,1167,2331,2332,2333,2334,2339,2340,2341,
2342,2335,2336,2337,2338
2,93,151,152,94,1167,1168,1171,1170,2333,2343,2344,2345,2341,2348,2349,
2350,2338,2337,2346,2347
3,94,152,153,95,1170,1171,1173,1172,2344,2351,2352,2353,2349,2356,2357,
2358,2347,2346,2354,2355
4,95,153,154,96,1172,1173,1175,1174,2352,2359,2360,2361,2357,2364,2365,
2366,2355,2354,2362,2363
5,96,154,155,97,1174,1175,1177,1176,2360,2367,2368,2369,2365,2372,2373,
2374,2363,2362,2370,2371
6,97,155,103,98,1176,1177,1179,1178,2368,2375,2376,2377,2373,2380,2381,
2382,2371,2370,2378,2379
7,99,100,156,104,1180,1183,1182,1181,2383,2384,2385,2386,2391,2392,2393,
2394,2387,2388,2389,2390
8,105,158,157,106,1184,1187,1186,1185,2395,2396,2397,2398,2403,2404,2405,
2406,2399,2400,2401,2402
9,101,159,156,100,1188,1189,1182,1183,2407,2408,2384,2409,2412,2413,2392,
2414,2410,2411,2389,2388
10,102,160,159,101,1190,1191,1189,1188,2415,2416,2407,2417,2420,2421,2412,
2422,2418,2419,2411,2410
** ... 1962 like lines cut
*ELEMENT,TYPE=C3D15
628,269,264,272,1965,1952,1969,5955,6004,5988,5957,6005,5989,5951,5897,5974
630,271,265,266,1968,1954,1956,6006,5913,5968,6007,5918,5971,5969,5908,5916
676,40,546,1026,1865,1866,1874,5513,5551,6175,5521,5555,6176,5518,5517,5554
677,546,279,550,1866,1997,1873,6138,6141,5552,6140,6142,5556,5517,6134,5547
678,49,279,51,1979,1997,1981,6133,6137,6173,6136,6139,6174,6040,6134,6052
693,516,537,515,2015,2017,2016,6258,6259,6260,6264,6265,6266,6261,6262,6263
712,503,807,808,2021,2055,2054,6411,6412,6413,6416,6417,6418,6272,6414,6415
713,513,514,536,2041,2043,2056,6360,6419,6420,6365,6422,6423,6355,6363,6421
729,508,509,531,2031,2033,2076,6320,6516,6511,6325,6517,6514,6315,6323,6513
737,520,504,505,2073,2023,2025,6546,6288,6500,6547,6293,6505,6502,6283,6291
741,804,805,519,2050,2084,2051,6563,6564,6395,6566,6567,6400,6398,6565,6399
758,532,533,537,2077,2078,2017,6519,6572,6542,6524,6574,6543,6522,6521,6262
930,324,829,323,1295,1294,1787,2895,5190,5224,2900,5194,5226,2899,2898,5193
*ELSET,ELSET=Component
1
2
3
4
5
6
7
8
9
10
11
12
13
14
15
16
17
18
19
20
** ... 984 like lines cut
*SURFACE,NAME=FIXE
556,S3
573,S5
574,S6
575,S6
576,S6
577,S6
774,S3
801,S5
802,S6
803,S6
804,S6
805,S6
806,S6
807,S6
808,S6
809,S6
810,S6
811,S6
812,S6
813,S6
** ... 30 like lines cut
*SURFACE,NAME=MOVIL
524,S6
525,S6
526,S6
527,S6
679,S5
*SURFACE,NAME=SIM_Z
1,S1
1,S2
2,S1
2,S2
3,S1
3,S2
4,S1
4,S2
5,S1
5,S2
6,S1
6,S2
7,S1
7,S2
8,S1
8,S2
9,S1
9,S2
10,S1
10,S2
** ... 1988 like lines cut
*SURFACE,NAME=MASTER
95,S6
96,S6
97,S6
98,S6
99,S6
100,S6
101,S6
102,S6
103,S6
104,S6
105,S6
106,S6
107,S6
108,S6
109,S6
110,S6
111,S6
112,S6
113,S6
114,S6
** ... 69 like lines cut
*SURFACE,NAME=SLAVE
510,S6
512,S6
513,S6
514,S6
515,S6
516,S6
517,S6
518,S6
519,S6
520,S6
521,S6
522,S6
523,S6
524,S6
525,S6
526,S6
527,S6
528,S5
547,S6
548,S6
** ... 11 like lines cut
*MATERIAL,NAME=TEFLON_75-23-2
*ELASTIC,TYPE=ISOTROPIC
10000000000,0.3
*DENSITY
2010
*SOLID SECTION,ELSET=Component,MATERIAL=TEFLON_75-23-2
*BOUNDARY
1,3,,0
2,3,,0
3,3,,0
4,3,,0
5,3,,0
6,1,,0
6,2,,0
6,3,,0
7,1,,0
7,2,,0
7,3,,0
8,3,,0
9,3,,0
10,3,,0
11,3,,0
12,1,,0
12,2,,0
12,3,,0
13,3,,0
14,3,,0
** ... 7229 like lines cut
*AMPLITUDE,NAME=A_1
0,0
1,-0.0105
*CONTACT PAIR,INTERACTION=SI_2,TYPE=SURFACE TO SURFACE
SLAVE,MASTER
*SURFACE INTERACTION,NAME=SI_2
*SURFACE BEHAVIOR,PRESSURE-OVERCLOSURE=LINEAR
1000000000000
*NSET, NSET=NBOUN
  35,  41,1067,1068,1069,1070,1816,1817,
1820,1822,1824,1999,5326,5327,5330,5334,
5337,5338,5342,5345,5346,5350,5353,5354,
5358,6178,6181,6183
** ++++++++++++++++++++++++++++++++++++++++++++++++++++++++++
*STEP
*STATIC,TIME RESET
*EL FILE
ENER
*NODE FILE
U
*END STEP
** ++++++++++++++++++++++++++++++++++++++++++++++++++++++++++
*STEP,NLGEOM=YES,INC=100,AMPLITUDE=STEP
*STATIC,DIRECT
0.01,1,0,0
*BOUNDARY,AMPLITUDE=A_1
NBOUN,1,,1
*NODE FILE,GLOBAL=YES
U,RF
*EL FILE
S,NOE,E,ENER
*CONTACT FILE
CDIS,CSTR
*END STEP
