** Incorrect results with ELSETS in DFLUX statement
** https://calculix.discourse.group/t/dflux-and-shells/585
**------------------------------------------------------------------------------
**
** Universal file to Abaqus/Calculix Konverter
** D:\Software\Calculix\Konverter\Unv-Konverter\unical\unical4.exe
** converted input file .\ParabolicBox01.unv
** Fri Jul 09 10:47:14 2021
**
**------------------------------------------------------------------------------
*HEADING
.\ParabolicBox01.unv, Fri Jul 09 10:47:14 2021
*node, nset=nall
1, 0, 0, 1
2, 0, 0, 0
3, 0, 1, 1
4, 0, 1, 0
5, 1, 0, 1
6, 1, 0, 0
7, 1, 1, 1
8, 1, 1, 0
9, 0, 0, 0.5
10, 0, 0.5, 1
11, 0, 1, 0.5
12, 0, 0.5, 0
13, 1, 0, 0.5
14, 1, 0.5, 1
15, 1, 1, 0.5
16, 1, 0.5, 0
17, 0.5, 0, 0
18, 0.5, 0, 1
19, 0.5, 1, 0
20, 0.5, 1, 1
*element, elset=EALL,type=C3D20R
19, 1, 2, 4, 3, 5, 6, 8, 7, 9, 12, 11, 10, 13, 16, 15, 
14, 18, 17, 19, 20, 
*SOLID SECTION, ELSET=EALL, MATERIAL=MID1
*MATERIAL,NAME=MID1
*CONDUCTIVITY, TYPE=ISO
1.0
*PHYSICAL CONSTANTS,ABSOLUTE ZERO=-273.15,STEFAN BOLTZMANN=5.669E-8
*SPECIFIC HEAT
1.0
*DENSITY
1.0
**
*INITIAL CONDITIONS, TYPE=TEMPERATURE
NALL, 0.0
**
*AMPLITUDE, NAME=SIN, EQUATION
sin(t*1000*pi/2.)
** ++++++++++++++++++++++++++++++++++++++++++++++++++++++++++++++
*STEP, INC=100000
*HEAT TRANSFER
1.e-5,1.e-3, 1.E-07, 1.E-06
** Element 19 exists (vs. ParabolicBox01.inp):
*DFLUX, AMPLITUDE=SIN
19,S1,100.0
*NODE PRINT,NSET=NALL
NT,RFL
*NODE FILE
NT, RFL
*END STEP
