** Generated by Mecway 15.0
*NODE
1,0,-0.3446781107062,-0.199
2,0.03892857142857,-0.3561910823229,-0.1756540030407
3,0.03892857142857,-0.3302163700711,-0.2206435243727
4,0,-0.384438478863,-0.1030099799508
5,0.03892857142857,-0.3760712664013,-0.1276589930161
6,0,-0.3645582947846,-0.1510049899754
7,0.03892857142857,-0.3962975274134,-0.02597471225179
8,0.03892857142857,-0.3895167668449,-0.07747970222719
9,0,-0.3912192394315,-0.0515049899754
10,0.03892857142857,-0.3895167668449,0.07747970222719
11,0,-0.398,4.022343439228E-16
12,0.03892857142857,-0.3962975274134,0.02597471225179
13,0,-0.3912192394315,0.0515049899754
14,0,-0.384438478863,0.1030099799508
15,0.03892857142857,-0.3760712664013,0.1276589930161
16,0,-0.3645582947846,0.1510049899754
17,0,-0.3446781107062,0.199
18,0.03892857142857,-0.3302163700711,0.2206435243727
19,0.03892857142857,-0.3561910823228,0.1756540030407
20,0,-0.2814284989122,-0.2814284989122
** ... 1372 like lines cut
*ELEMENT,TYPE=B31
1,99,90
2,90,188
3,93,91
4,91,188
5,93,94
6,94,192
7,96,97
8,97,192
9,96,98
10,98,174
11,76,77
12,77,174
13,76,79
14,79,175
15,68,69
16,69,175
17,68,70
18,70,160
19,62,63
20,63,160
** ... 2044 like lines cut
*NSET,NSET=displz
1
4
11
14
17
20
25
30
33
36
39
43
58
59
62
65
68
71
76
81
** ... 4 like lines cut
*NSET,NSET=roty
1
4
11
14
17
20
25
30
33
36
39
43
58
59
62
65
68
71
76
81
** ... 4 like lines cut
*NSET,NSET=rotx
1
4
11
14
17
20
25
30
33
36
39
43
58
59
62
65
68
71
76
81
** ... 4 like lines cut
*NSET,NSET=disply
1
4
11
14
17
20
25
30
33
36
39
43
58
59
62
65
68
71
76
81
** ... 4 like lines cut
*NSET,NSET=displx
1
4
11
14
17
20
25
30
33
36
39
43
58
59
62
65
68
71
76
81
** ... 4 like lines cut
*NSET,NSET=rotz
1
4
11
14
17
20
25
30
33
36
39
43
58
59
62
65
68
71
76
81
** ... 4 like lines cut
*NSET,NSET=force1
52
151
250
348
445
544
641
642
740
935
1033
1131
1230
1328
1374
1375
1379
1381
1382
1384
** ... 4 like lines cut
*ELSET,ELSET=1
1
2
194
386
578
770
962
1154
*ELSET,ELSET=2
3
4
195
196
387
388
579
580
771
772
963
964
1155
1156
*ELSET,ELSET=3
5
197
389
581
773
965
1157
*ELSET,ELSET=4
6
198
390
582
774
966
1158
*ELSET,ELSET=5
7
199
391
583
775
967
1159
*ELSET,ELSET=6
8
200
392
584
776
968
1160
*ELSET,ELSET=7
9
10
201
202
393
394
585
586
777
778
969
970
1161
1162
*ELSET,ELSET=8
11
12
203
204
395
396
587
588
779
780
971
972
1163
1164
*ELSET,ELSET=9
13
205
397
589
781
973
1165
*ELSET,ELSET=A
14
206
398
590
782
974
1166
*ELSET,ELSET=B
15
207
399
591
783
975
1167
*ELSET,ELSET=C
16
208
400
592
784
976
1168
*ELSET,ELSET=D
17
209
401
593
785
977
1169
*ELSET,ELSET=E
18
210
402
594
786
978
1170
*ELSET,ELSET=F
19
211
403
595
787
979
1171
*ELSET,ELSET=10
20
212
404
596
788
980
1172
*ELSET,ELSET=11
21
22
213
214
405
406
597
598
789
790
981
982
1173
1174
*ELSET,ELSET=12
23
215
407
599
791
983
1175
*ELSET,ELSET=13
24
216
408
600
792
984
1176
*ELSET,ELSET=14
25
217
409
601
793
985
1177
*ELSET,ELSET=15
26
218
410
602
794
986
1178
*ELSET,ELSET=16
27
28
219
220
411
412
603
604
795
796
987
988
1179
1180
*ELSET,ELSET=17
29
30
221
222
413
414
605
606
797
798
989
990
1181
1182
*ELSET,ELSET=18
31
32
223
224
415
416
607
608
799
800
991
992
1183
1184
*ELSET,ELSET=19
33
34
225
226
417
418
609
610
801
802
993
994
1185
1186
*ELSET,ELSET=1A
35
36
227
228
419
420
611
612
803
804
995
996
1187
1188
*ELSET,ELSET=1B
37
229
421
613
805
997
1189
*ELSET,ELSET=1C
38
230
422
614
806
998
1190
*ELSET,ELSET=1D
39
40
231
232
423
424
615
616
807
808
999
1000
1191
1192
*ELSET,ELSET=1E
41
233
425
617
809
1001
1193
*ELSET,ELSET=1F
42
234
426
618
810
1002
1194
*ELSET,ELSET=20
43
44
236
428
620
812
1004
1196
*ELSET,ELSET=21
45
*ELSET,ELSET=22
46
238
430
622
814
1006
1198
*ELSET,ELSET=23
47
48
240
432
624
816
1008
1200
*ELSET,ELSET=24
49
50
242
434
626
818
1010
1202
*ELSET,ELSET=25
51
*ELSET,ELSET=26
52
244
436
628
820
1012
1204
*ELSET,ELSET=27
53
*ELSET,ELSET=28
54
246
438
630
822
1014
1206
*ELSET,ELSET=29
55
56
248
440
632
824
1016
1208
*ELSET,ELSET=2A
57
*ELSET,ELSET=2B
58
250
442
634
826
1018
1210
*ELSET,ELSET=2C
59
*ELSET,ELSET=2D
60
252
444
636
828
1020
1212
*ELSET,ELSET=2E
61
*ELSET,ELSET=2F
62
254
446
638
830
1022
1214
*ELSET,ELSET=30
63
64
255
256
447
448
639
640
831
832
1023
1024
1215
1216
*ELSET,ELSET=31
65
66
257
258
449
450
641
642
833
834
1025
1026
1217
1218
*ELSET,ELSET=32
67
*ELSET,ELSET=33
68
260
452
644
836
1028
1220
*ELSET,ELSET=34
69
70
262
454
646
838
1030
1222
*ELSET,ELSET=35
71
*ELSET,ELSET=36
72
264
456
648
840
1032
1224
*ELSET,ELSET=37
73
74
266
458
650
842
1034
1226
*ELSET,ELSET=38
75
76
268
460
652
844
1036
1228
*ELSET,ELSET=39
77
78
270
462
654
846
1038
1230
*ELSET,ELSET=3A
79
271
463
655
847
1039
1231
*ELSET,ELSET=3B
80
272
464
656
848
1040
1232
*ELSET,ELSET=3C
81
82
273
274
465
466
657
658
849
850
1041
1042
1233
1234
*ELSET,ELSET=3D
83
275
467
659
851
1043
1235
*ELSET,ELSET=3E
84
276
468
660
852
1044
1236
*ELSET,ELSET=3F
85
86
277
278
469
470
661
662
853
854
1045
1046
1237
1238
*ELSET,ELSET=40
87
279
471
663
855
1047
1239
*ELSET,ELSET=41
88
280
472
664
856
1048
1240
*ELSET,ELSET=42
89
281
473
665
857
1049
1241
*ELSET,ELSET=43
90
282
474
666
858
1050
1242
*ELSET,ELSET=44
91
283
475
667
859
1051
1243
*ELSET,ELSET=45
92
284
476
668
860
1052
1244
*ELSET,ELSET=46
93
94
285
286
477
478
669
670
861
862
1053
1054
1245
1246
*ELSET,ELSET=47
95
*ELSET,ELSET=48
96
287
288
479
480
671
672
863
864
1055
1056
1247
1248
*ELSET,ELSET=49
97
98
289
290
481
482
673
674
865
866
1057
1058
1249
1250
*ELSET,ELSET=4A
99
291
483
675
867
1059
1251
*ELSET,ELSET=4B
100
292
484
676
868
1060
1252
*ELSET,ELSET=4C
101
293
485
677
869
1061
1253
*ELSET,ELSET=4D
102
294
486
678
870
1062
1254
*ELSET,ELSET=4E
103
104
295
296
487
488
679
680
871
872
1063
1064
1255
1256
*ELSET,ELSET=4F
105
106
297
298
489
490
681
682
873
874
1065
1066
1257
1258
*ELSET,ELSET=50
107
299
491
683
875
1067
1259
*ELSET,ELSET=51
108
300
492
684
876
1068
1260
*ELSET,ELSET=52
109
301
493
685
877
1069
1261
*ELSET,ELSET=53
110
302
494
686
878
1070
1262
*ELSET,ELSET=54
111
303
495
687
879
1071
1263
*ELSET,ELSET=55
112
304
496
688
880
1072
1264
*ELSET,ELSET=56
113
305
497
689
881
1073
1265
*ELSET,ELSET=57
114
306
498
690
882
1074
1266
*ELSET,ELSET=58
115
116
307
308
499
500
691
692
883
884
1075
1076
1267
1268
*ELSET,ELSET=59
117
118
309
310
501
502
693
694
885
886
1077
1078
1269
1270
*ELSET,ELSET=5A
119
120
311
312
503
504
695
696
887
888
1079
1080
1271
1272
*ELSET,ELSET=5B
121
122
313
314
505
506
697
698
889
890
1081
1082
1273
1274
*ELSET,ELSET=5C
123
124
315
316
507
508
699
700
891
892
1083
1084
1275
1276
*ELSET,ELSET=5D
125
126
317
318
509
510
701
702
893
894
1085
1086
1277
1278
*ELSET,ELSET=5E
127
128
319
320
511
512
703
704
895
896
1087
1088
1279
1280
*ELSET,ELSET=5F
129
130
321
322
513
514
705
706
897
898
1089
1090
1281
1282
*ELSET,ELSET=60
131
323
515
707
899
1091
1283
*ELSET,ELSET=61
132
324
516
708
900
1092
1284
*ELSET,ELSET=62
133
134
325
326
517
518
709
710
901
902
1093
1094
1285
1286
*ELSET,ELSET=63
135
327
519
711
903
1095
1287
*ELSET,ELSET=64
136
328
520
712
904
1096
1288
*ELSET,ELSET=65
137
138
329
330
521
522
713
714
905
906
1097
1098
1289
*ELSET,ELSET=66
139
140
331
332
523
524
715
716
907
908
1099
1100
1291
*ELSET,ELSET=67
141
142
333
334
525
526
717
718
909
910
1101
1102
1293
1294
*ELSET,ELSET=68
143
144
335
336
527
528
719
720
911
912
1103
1104
1295
1296
*ELSET,ELSET=69
145
337
529
721
913
1105
1297
*ELSET,ELSET=6A
146
338
530
722
914
1106
1298
*ELSET,ELSET=6B
147
148
339
340
531
532
723
724
915
916
1107
1108
1299
1300
*ELSET,ELSET=6C
149
150
341
342
533
534
725
726
917
918
1109
1110
1301
1302
*ELSET,ELSET=6D
151
343
535
727
919
1111
1303
*ELSET,ELSET=6E
152
344
536
728
920
1112
1304
*ELSET,ELSET=6F
153
154
345
346
537
538
729
730
921
922
1113
1114
1305
1306
*ELSET,ELSET=70
155
347
539
731
923
1115
1307
*ELSET,ELSET=71
156
348
540
732
924
1116
1308
*ELSET,ELSET=72
157
158
349
350
541
542
733
734
925
926
1117
1118
1309
1310
*ELSET,ELSET=73
159
160
351
352
543
544
735
736
927
928
1119
1120
1311
1312
*ELSET,ELSET=74
161
162
353
354
545
546
737
738
929
930
1121
1122
1313
1314
*ELSET,ELSET=75
163
355
547
739
931
1123
1315
*ELSET,ELSET=76
164
356
548
740
932
1124
1316
*ELSET,ELSET=77
165
166
357
358
549
550
741
742
933
934
1125
1126
1317
*ELSET,ELSET=78
167
359
551
743
935
1127
1319
*ELSET,ELSET=79
168
360
552
744
936
1128
1320
*ELSET,ELSET=7A
169
170
361
362
553
554
745
746
937
938
1129
1130
1321
1322
*ELSET,ELSET=7B
171
363
555
747
939
1131
1323
*ELSET,ELSET=7C
172
364
556
748
940
1132
1324
*ELSET,ELSET=7D
173
365
557
749
941
1133
1325
*ELSET,ELSET=7E
174
366
558
750
942
1134
1326
*ELSET,ELSET=7F
175
367
559
751
943
1135
1327
*ELSET,ELSET=80
176
368
560
752
944
1136
1328
*ELSET,ELSET=81
177
369
561
753
945
1137
1329
*ELSET,ELSET=82
178
370
562
754
946
1138
1330
*ELSET,ELSET=83
179
371
563
755
947
1139
1331
*ELSET,ELSET=84
180
372
564
756
948
1140
1332
*ELSET,ELSET=85
181
373
565
757
949
1141
1333
*ELSET,ELSET=86
182
374
566
758
950
1142
1334
*ELSET,ELSET=87
183
375
567
759
951
1143
1335
*ELSET,ELSET=88
184
376
568
760
952
1144
1336
*ELSET,ELSET=89
185
377
569
761
953
1145
1337
*ELSET,ELSET=8A
186
378
570
762
954
1146
1338
*ELSET,ELSET=8B
187
379
571
763
955
1147
1339
*ELSET,ELSET=8C
188
380
572
764
956
1148
1340
*ELSET,ELSET=8D
189
381
573
765
957
1149
1341
*ELSET,ELSET=8E
190
382
574
766
958
1150
1342
*ELSET,ELSET=8F
191
383
575
767
959
1151
1343
*ELSET,ELSET=90
192
384
576
768
960
1152
1344
*ELSET,ELSET=91
193
385
577
769
961
1153
*ELSET,ELSET=92
235
427
619
811
1003
1195
*ELSET,ELSET=93
237
429
621
813
1005
1197
*ELSET,ELSET=94
239
431
623
815
1007
1199
*ELSET,ELSET=95
241
433
625
817
1009
1201
*ELSET,ELSET=96
243
435
627
819
1011
1203
*ELSET,ELSET=97
245
437
629
821
1013
1205
*ELSET,ELSET=98
247
439
631
823
1015
1207
*ELSET,ELSET=99
249
441
633
825
1017
1209
*ELSET,ELSET=9A
251
443
635
827
1019
1211
*ELSET,ELSET=9B
253
445
637
829
1021
1213
*ELSET,ELSET=9C
259
451
643
835
1027
1219
*ELSET,ELSET=9D
261
453
645
837
1029
1221
*ELSET,ELSET=9E
263
455
647
839
1031
1223
*ELSET,ELSET=9F
265
457
649
841
1033
1225
*ELSET,ELSET=A0
267
459
651
843
1035
1227
*ELSET,ELSET=A1
269
461
653
845
1037
1229
*ELSET,ELSET=A2
1290
*ELSET,ELSET=A3
1292
*ELSET,ELSET=A4
1318
*ELSET,ELSET=b_circ_ribs
1345
1346
1347
1348
1349
1350
1351
1352
1353
1354
1355
1356
1357
1358
1359
1360
1361
1362
1363
1364
** ... 604 like lines cut
*ELSET,ELSET=b_terminal_ribs
1969
1970
1971
1972
1973
1974
1975
1976
1977
1978
1979
1980
1981
1982
1983
1984
1985
1986
1987
1988
** ... 76 like lines cut
*MATERIAL,NAME=reinforce_ribs
*ELASTIC,TYPE=ISOTROPIC
1990000000000,0.3
*DENSITY
1580
*MATERIAL,NAME=helical_ribs
*ELASTIC,TYPE=ISOTROPIC
199000000000,0.3
*DENSITY
1580
*MATERIAL,NAME=circ_ribs
*ELASTIC,TYPE=ISOTROPIC
199000000000,0.3
*DENSITY
1580
*MATERIAL,NAME=terminal_ribs
*ELASTIC,TYPE=ISOTROPIC
1990000000000,0.3
*DENSITY
915495.7236341
*BEAM SECTION,ELSET=1,MATERIAL=helical_ribs,SECTION=RECT
0.00368,0.00702
0.5558537310825,0.05436832078965,-0.8295002804919
*BEAM SECTION,ELSET=2,MATERIAL=helical_ribs,SECTION=RECT
0.00368,0.00702
-0.5558537310825,0.1621747053265,-0.8153073007118
*BEAM SECTION,ELSET=3,MATERIAL=helical_ribs,SECTION=RECT
0.00368,0.00702
0.5558537310825,0.2672062356919,-0.7871641869706
*BEAM SECTION,ELSET=4,MATERIAL=helical_ribs,SECTION=RECT
0.00368,0.00702
0.5558537310825,0.2672062356919,-0.7871641869706
*BEAM SECTION,ELSET=5,MATERIAL=helical_ribs,SECTION=RECT
0.00368,0.00702
-0.5558537310825,0.367665793281,-0.7455524757472
*BEAM SECTION,ELSET=6,MATERIAL=helical_ribs,SECTION=RECT
0.00368,0.00702
-0.5558537310825,0.367665793281,-0.7455524757472
*BEAM SECTION,ELSET=7,MATERIAL=helical_ribs,SECTION=RECT
0.00368,0.00702
0.5558537310825,0.4618344872109,-0.6911841549575
*BEAM SECTION,ELSET=8,MATERIAL=helical_ribs,SECTION=RECT
0.00368,0.00702
-0.5558537310825,0.5481010650199,-0.6249894816441
*BEAM SECTION,ELSET=9,MATERIAL=helical_ribs,SECTION=RECT
0.00368,0.00702
0.5558537310825,0.6249894816441,-0.5481010650199
*BEAM SECTION,ELSET=A,MATERIAL=helical_ribs,SECTION=RECT
0.00368,0.00702
0.5558537310825,0.6249894816441,-0.5481010650199
*BEAM SECTION,ELSET=B,MATERIAL=helical_ribs,SECTION=RECT
0.00368,0.00702
-0.5558537310825,0.6911841549575,-0.4618344872109
*BEAM SECTION,ELSET=C,MATERIAL=helical_ribs,SECTION=RECT
0.00368,0.00702
-0.5558537310825,0.6911841549575,-0.4618344872109
*BEAM SECTION,ELSET=D,MATERIAL=helical_ribs,SECTION=RECT
0.00368,0.00702
0.5558537310825,0.7455524757472,-0.367665793281
*BEAM SECTION,ELSET=E,MATERIAL=helical_ribs,SECTION=RECT
0.00368,0.00702
0.5558537310825,0.7455524757472,-0.367665793281
*BEAM SECTION,ELSET=F,MATERIAL=helical_ribs,SECTION=RECT
0.00368,0.00702
-0.5558537310825,0.7871641869706,-0.2672062356919
*BEAM SECTION,ELSET=10,MATERIAL=helical_ribs,SECTION=RECT
0.00368,0.00702
-0.5558537310825,0.7871641869706,-0.2672062356919
*BEAM SECTION,ELSET=11,MATERIAL=helical_ribs,SECTION=RECT
0.00368,0.00702
0.5558537310825,0.8153073007118,-0.1621747053265
*BEAM SECTION,ELSET=12,MATERIAL=helical_ribs,SECTION=RECT
0.00368,0.00702
-0.5558537310825,0.8295002804919,-0.05436832078965
*BEAM SECTION,ELSET=13,MATERIAL=helical_ribs,SECTION=RECT
0.00368,0.00702
-0.5558537310825,0.8295002804919,-0.05436832078965
*BEAM SECTION,ELSET=14,MATERIAL=helical_ribs,SECTION=RECT
0.00368,0.00702
0.5558537310825,0.8295002804919,0.05436832078965
*BEAM SECTION,ELSET=15,MATERIAL=helical_ribs,SECTION=RECT
0.00368,0.00702
0.5558537310825,0.8295002804919,0.05436832078965
*BEAM SECTION,ELSET=16,MATERIAL=helical_ribs,SECTION=RECT
0.00368,0.00702
-0.5558537310825,0.8153073007118,0.1621747053265
*BEAM SECTION,ELSET=17,MATERIAL=helical_ribs,SECTION=RECT
0.00368,0.00702
0.5558537310825,0.7871641869706,0.2672062356919
*BEAM SECTION,ELSET=18,MATERIAL=helical_ribs,SECTION=RECT
0.00368,0.00702
-0.5558537310825,0.7455524757472,0.367665793281
*BEAM SECTION,ELSET=19,MATERIAL=helical_ribs,SECTION=RECT
0.00368,0.00702
0.5558537310825,0.6911841549575,0.4618344872109
*BEAM SECTION,ELSET=1A,MATERIAL=helical_ribs,SECTION=RECT
0.00368,0.00702
-0.5558537310825,0.6249894816441,0.5481010650199
*BEAM SECTION,ELSET=1B,MATERIAL=helical_ribs,SECTION=RECT
0.00368,0.00702
0.5558537310825,0.5481010650199,0.6249894816441
*BEAM SECTION,ELSET=1C,MATERIAL=helical_ribs,SECTION=RECT
0.00368,0.00702
0.5558537310825,0.5481010650199,0.6249894816441
*BEAM SECTION,ELSET=1D,MATERIAL=helical_ribs,SECTION=RECT
0.00368,0.00702
-0.5558537310825,0.4618344872109,0.6911841549575
*BEAM SECTION,ELSET=1E,MATERIAL=helical_ribs,SECTION=RECT
0.00368,0.00702
0.5558537310825,0.367665793281,0.7455524757472
*BEAM SECTION,ELSET=1F,MATERIAL=helical_ribs,SECTION=RECT
0.00368,0.00702
0.5558537310825,0.367665793281,0.7455524757472
*BEAM SECTION,ELSET=20,MATERIAL=helical_ribs,SECTION=RECT
0.00368,0.00702
-0.5558537310825,0.2672062356919,0.7871641869706
*BEAM SECTION,ELSET=21,MATERIAL=helical_ribs,SECTION=RECT
0.00368,0.00702
0.5558537310825,0.1621747053265,0.8153073007118
*BEAM SECTION,ELSET=22,MATERIAL=helical_ribs,SECTION=RECT
0.00368,0.00702
0.5558537310825,0.1621747053265,0.8153073007118
*BEAM SECTION,ELSET=23,MATERIAL=helical_ribs,SECTION=RECT
0.00368,0.00702
-0.5558537310825,0.05436832078965,0.8295002804919
*BEAM SECTION,ELSET=24,MATERIAL=helical_ribs,SECTION=RECT
0.00368,0.00702
0.5558537310825,-0.05436832078965,0.8295002804919
*BEAM SECTION,ELSET=25,MATERIAL=helical_ribs,SECTION=RECT
0.00368,0.00702
-0.5558537310825,-0.1621747053265,0.8153073007118
*BEAM SECTION,ELSET=26,MATERIAL=helical_ribs,SECTION=RECT
0.00368,0.00702
-0.5558537310825,-0.1621747053265,0.8153073007118
*BEAM SECTION,ELSET=27,MATERIAL=helical_ribs,SECTION=RECT
0.00368,0.00702
0.5558537310825,-0.2672062356919,0.7871641869706
*BEAM SECTION,ELSET=28,MATERIAL=helical_ribs,SECTION=RECT
0.00368,0.00702
0.5558537310825,-0.2672062356919,0.7871641869706
*BEAM SECTION,ELSET=29,MATERIAL=helical_ribs,SECTION=RECT
0.00368,0.00702
-0.5558537310825,-0.367665793281,0.7455524757472
*BEAM SECTION,ELSET=2A,MATERIAL=helical_ribs,SECTION=RECT
0.00368,0.00702
0.5558537310825,-0.4618344872109,0.6911841549575
*BEAM SECTION,ELSET=2B,MATERIAL=helical_ribs,SECTION=RECT
0.00368,0.00702
0.5558537310825,-0.4618344872109,0.6911841549575
*BEAM SECTION,ELSET=2C,MATERIAL=helical_ribs,SECTION=RECT
0.00368,0.00702
-0.5558537310825,-0.5481010650199,0.6249894816441
*BEAM SECTION,ELSET=2D,MATERIAL=helical_ribs,SECTION=RECT
0.00368,0.00702
-0.5558537310825,-0.5481010650199,0.6249894816441
*BEAM SECTION,ELSET=2E,MATERIAL=helical_ribs,SECTION=RECT
0.00368,0.00702
0.5558537310825,-0.6249894816441,0.5481010650199
*BEAM SECTION,ELSET=2F,MATERIAL=helical_ribs,SECTION=RECT
0.00368,0.00702
0.5558537310825,-0.6249894816441,0.5481010650199
*BEAM SECTION,ELSET=30,MATERIAL=helical_ribs,SECTION=RECT
0.00368,0.00702
-0.5558537310825,-0.6911841549575,0.4618344872109
*BEAM SECTION,ELSET=31,MATERIAL=helical_ribs,SECTION=RECT
0.00368,0.00702
0.5558537310825,-0.7455524757472,0.367665793281
*BEAM SECTION,ELSET=32,MATERIAL=helical_ribs,SECTION=RECT
0.00368,0.00702
-0.5558537310825,-0.7871641869706,0.2672062356919
*BEAM SECTION,ELSET=33,MATERIAL=helical_ribs,SECTION=RECT
0.00368,0.00702
-0.5558537310825,-0.7871641869706,0.2672062356919
*BEAM SECTION,ELSET=34,MATERIAL=helical_ribs,SECTION=RECT
0.00368,0.00702
0.5558537310825,-0.8153073007118,0.1621747053265
*BEAM SECTION,ELSET=35,MATERIAL=helical_ribs,SECTION=RECT
0.00368,0.00702
-0.5558537310825,-0.8295002804919,0.05436832078965
*BEAM SECTION,ELSET=36,MATERIAL=helical_ribs,SECTION=RECT
0.00368,0.00702
-0.5558537310825,-0.8295002804919,0.05436832078965
*BEAM SECTION,ELSET=37,MATERIAL=helical_ribs,SECTION=RECT
0.00368,0.00702
0.5558537310825,-0.8295002804919,-0.05436832078965
*BEAM SECTION,ELSET=38,MATERIAL=helical_ribs,SECTION=RECT
0.00368,0.00702
-0.5558537310825,-0.8153073007118,-0.1621747053265
*BEAM SECTION,ELSET=39,MATERIAL=helical_ribs,SECTION=RECT
0.00368,0.00702
0.5558537310825,-0.7871641869706,-0.2672062356919
*BEAM SECTION,ELSET=3A,MATERIAL=helical_ribs,SECTION=RECT
0.00368,0.00702
-0.5558537310825,-0.7455524757472,-0.367665793281
*BEAM SECTION,ELSET=3B,MATERIAL=helical_ribs,SECTION=RECT
0.00368,0.00702
-0.5558537310825,-0.7455524757472,-0.367665793281
*BEAM SECTION,ELSET=3C,MATERIAL=helical_ribs,SECTION=RECT
0.00368,0.00702
0.5558537310825,-0.6911841549575,-0.4618344872109
*BEAM SECTION,ELSET=3D,MATERIAL=helical_ribs,SECTION=RECT
0.00368,0.00702
-0.5558537310825,-0.6249894816441,-0.5481010650199
*BEAM SECTION,ELSET=3E,MATERIAL=helical_ribs,SECTION=RECT
0.00368,0.00702
-0.5558537310825,-0.6249894816441,-0.5481010650199
*BEAM SECTION,ELSET=3F,MATERIAL=helical_ribs,SECTION=RECT
0.00368,0.00702
0.5558537310825,-0.5481010650199,-0.6249894816441
*BEAM SECTION,ELSET=40,MATERIAL=helical_ribs,SECTION=RECT
0.00368,0.00702
-0.5558537310825,-0.4618344872109,-0.6911841549575
*BEAM SECTION,ELSET=41,MATERIAL=helical_ribs,SECTION=RECT
0.00368,0.00702
-0.5558537310825,-0.4618344872109,-0.6911841549575
*BEAM SECTION,ELSET=42,MATERIAL=helical_ribs,SECTION=RECT
0.00368,0.00702
0.5558537310825,-0.367665793281,-0.7455524757472
*BEAM SECTION,ELSET=43,MATERIAL=helical_ribs,SECTION=RECT
0.00368,0.00702
0.5558537310825,-0.367665793281,-0.7455524757472
*BEAM SECTION,ELSET=44,MATERIAL=helical_ribs,SECTION=RECT
0.00368,0.00702
-0.5558537310825,-0.2672062356919,-0.7871641869706
*BEAM SECTION,ELSET=45,MATERIAL=helical_ribs,SECTION=RECT
0.00368,0.00702
-0.5558537310825,-0.2672062356919,-0.7871641869706
*BEAM SECTION,ELSET=46,MATERIAL=helical_ribs,SECTION=RECT
0.00368,0.00702
0.5558537310825,-0.1621747053265,-0.8153073007118
*BEAM SECTION,ELSET=47,MATERIAL=helical_ribs,SECTION=RECT
0.00368,0.00702
-0.5558537310825,-0.05436832078965,-0.8295002804919
*BEAM SECTION,ELSET=48,MATERIAL=helical_ribs,SECTION=RECT
0.00368,0.00702
-0.5558537310825,-0.05436832078965,-0.8295002804919
*BEAM SECTION,ELSET=49,MATERIAL=helical_ribs,SECTION=RECT
0.00368,0.00702
0.5558537310825,0.1621747053265,-0.8153073007118
*BEAM SECTION,ELSET=4A,MATERIAL=helical_ribs,SECTION=RECT
0.00368,0.00702
-0.5558537310825,0.2672062356919,-0.7871641869706
*BEAM SECTION,ELSET=4B,MATERIAL=helical_ribs,SECTION=RECT
0.00368,0.00702
-0.5558537310825,0.2672062356919,-0.7871641869706
*BEAM SECTION,ELSET=4C,MATERIAL=helical_ribs,SECTION=RECT
0.00368,0.00702
0.5558537310825,0.367665793281,-0.7455524757472
*BEAM SECTION,ELSET=4D,MATERIAL=helical_ribs,SECTION=RECT
0.00368,0.00702
0.5558537310825,0.367665793281,-0.7455524757472
*BEAM SECTION,ELSET=4E,MATERIAL=helical_ribs,SECTION=RECT
0.00368,0.00702
-0.5558537310825,0.4618344872109,-0.6911841549575
*BEAM SECTION,ELSET=4F,MATERIAL=helical_ribs,SECTION=RECT
0.00368,0.00702
0.5558537310825,0.5481010650199,-0.6249894816441
*BEAM SECTION,ELSET=50,MATERIAL=helical_ribs,SECTION=RECT
0.00368,0.00702
-0.5558537310825,0.6249894816441,-0.5481010650199
*BEAM SECTION,ELSET=51,MATERIAL=helical_ribs,SECTION=RECT
0.00368,0.00702
-0.5558537310825,0.6249894816441,-0.5481010650199
*BEAM SECTION,ELSET=52,MATERIAL=helical_ribs,SECTION=RECT
0.00368,0.00702
0.5558537310825,0.6911841549575,-0.4618344872109
*BEAM SECTION,ELSET=53,MATERIAL=helical_ribs,SECTION=RECT
0.00368,0.00702
0.5558537310825,0.6911841549575,-0.4618344872109
*BEAM SECTION,ELSET=54,MATERIAL=helical_ribs,SECTION=RECT
0.00368,0.00702
-0.5558537310825,0.7455524757472,-0.367665793281
*BEAM SECTION,ELSET=55,MATERIAL=helical_ribs,SECTION=RECT
0.00368,0.00702
-0.5558537310825,0.7455524757472,-0.367665793281
*BEAM SECTION,ELSET=56,MATERIAL=helical_ribs,SECTION=RECT
0.00368,0.00702
0.5558537310825,0.7871641869706,-0.2672062356919
*BEAM SECTION,ELSET=57,MATERIAL=helical_ribs,SECTION=RECT
0.00368,0.00702
0.5558537310825,0.7871641869706,-0.2672062356919
*BEAM SECTION,ELSET=58,MATERIAL=helical_ribs,SECTION=RECT
0.00368,0.00702
-0.5558537310825,0.8153073007118,-0.1621747053265
*BEAM SECTION,ELSET=59,MATERIAL=helical_ribs,SECTION=RECT
0.00368,0.00702
0.5558537310825,0.8295002804919,-0.05436832078965
*BEAM SECTION,ELSET=5A,MATERIAL=helical_ribs,SECTION=RECT
0.00368,0.00702
-0.5558537310825,0.8295002804919,0.05436832078965
*BEAM SECTION,ELSET=5B,MATERIAL=helical_ribs,SECTION=RECT
0.00368,0.00702
0.5558537310825,0.8153073007118,0.1621747053265
*BEAM SECTION,ELSET=5C,MATERIAL=helical_ribs,SECTION=RECT
0.00368,0.00702
-0.5558537310825,0.7871641869706,0.2672062356919
*BEAM SECTION,ELSET=5D,MATERIAL=helical_ribs,SECTION=RECT
0.00368,0.00702
0.5558537310825,0.7455524757472,0.367665793281
*BEAM SECTION,ELSET=5E,MATERIAL=helical_ribs,SECTION=RECT
0.00368,0.00702
-0.5558537310825,0.6911841549575,0.4618344872109
*BEAM SECTION,ELSET=5F,MATERIAL=helical_ribs,SECTION=RECT
0.00368,0.00702
0.5558537310825,0.6249894816441,0.5481010650199
*BEAM SECTION,ELSET=60,MATERIAL=helical_ribs,SECTION=RECT
0.00368,0.00702
-0.5558537310825,0.5481010650199,0.6249894816441
*BEAM SECTION,ELSET=61,MATERIAL=helical_ribs,SECTION=RECT
0.00368,0.00702
-0.5558537310825,0.5481010650199,0.6249894816441
*BEAM SECTION,ELSET=62,MATERIAL=helical_ribs,SECTION=RECT
0.00368,0.00702
0.5558537310825,0.4618344872109,0.6911841549575
*BEAM SECTION,ELSET=63,MATERIAL=helical_ribs,SECTION=RECT
0.00368,0.00702
-0.5558537310825,0.367665793281,0.7455524757472
*BEAM SECTION,ELSET=64,MATERIAL=helical_ribs,SECTION=RECT
0.00368,0.00702
-0.5558537310825,0.367665793281,0.7455524757472
*BEAM SECTION,ELSET=65,MATERIAL=helical_ribs,SECTION=RECT
0.00368,0.00702
0.5558537310825,0.2672062356919,0.7871641869706
*BEAM SECTION,ELSET=66,MATERIAL=helical_ribs,SECTION=RECT
0.00368,0.00702
-0.5558537310825,0.1621747053265,0.8153073007118
*BEAM SECTION,ELSET=67,MATERIAL=helical_ribs,SECTION=RECT
0.00368,0.00702
0.5558537310825,0.05436832078965,0.8295002804919
*BEAM SECTION,ELSET=68,MATERIAL=helical_ribs,SECTION=RECT
0.00368,0.00702
-0.5558537310825,-0.05436832078965,0.8295002804919
*BEAM SECTION,ELSET=69,MATERIAL=helical_ribs,SECTION=RECT
0.00368,0.00702
0.5558537310825,-0.1621747053265,0.8153073007118
*BEAM SECTION,ELSET=6A,MATERIAL=helical_ribs,SECTION=RECT
0.00368,0.00702
0.5558537310825,-0.1621747053265,0.8153073007118
*BEAM SECTION,ELSET=6B,MATERIAL=helical_ribs,SECTION=RECT
0.00368,0.00702
-0.5558537310825,-0.2672062356919,0.7871641869706
*BEAM SECTION,ELSET=6C,MATERIAL=helical_ribs,SECTION=RECT
0.00368,0.00702
0.5558537310825,-0.367665793281,0.7455524757472
*BEAM SECTION,ELSET=6D,MATERIAL=helical_ribs,SECTION=RECT
0.00368,0.00702
-0.5558537310825,-0.4618344872109,0.6911841549575
*BEAM SECTION,ELSET=6E,MATERIAL=helical_ribs,SECTION=RECT
0.00368,0.00702
-0.5558537310825,-0.4618344872109,0.6911841549575
*BEAM SECTION,ELSET=6F,MATERIAL=helical_ribs,SECTION=RECT
0.00368,0.00702
0.5558537310825,-0.5481010650199,0.6249894816441
*BEAM SECTION,ELSET=70,MATERIAL=helical_ribs,SECTION=RECT
0.00368,0.00702
-0.5558537310825,-0.6249894816441,0.5481010650199
*BEAM SECTION,ELSET=71,MATERIAL=helical_ribs,SECTION=RECT
0.00368,0.00702
-0.5558537310825,-0.6249894816441,0.5481010650199
*BEAM SECTION,ELSET=72,MATERIAL=helical_ribs,SECTION=RECT
0.00368,0.00702
0.5558537310825,-0.6911841549575,0.4618344872109
*BEAM SECTION,ELSET=73,MATERIAL=helical_ribs,SECTION=RECT
0.00368,0.00702
-0.5558537310825,-0.7455524757472,0.367665793281
*BEAM SECTION,ELSET=74,MATERIAL=helical_ribs,SECTION=RECT
0.00368,0.00702
0.5558537310825,-0.7871641869706,0.2672062356919
*BEAM SECTION,ELSET=75,MATERIAL=helical_ribs,SECTION=RECT
0.00368,0.00702
-0.5558537310825,-0.8153073007118,0.1621747053265
*BEAM SECTION,ELSET=76,MATERIAL=helical_ribs,SECTION=RECT
0.00368,0.00702
-0.5558537310825,-0.8153073007118,0.1621747053265
*BEAM SECTION,ELSET=77,MATERIAL=helical_ribs,SECTION=RECT
0.00368,0.00702
0.5558537310825,-0.8295002804919,0.05436832078965
*BEAM SECTION,ELSET=78,MATERIAL=helical_ribs,SECTION=RECT
0.00368,0.00702
-0.5558537310825,-0.8295002804919,-0.05436832078965
*BEAM SECTION,ELSET=79,MATERIAL=helical_ribs,SECTION=RECT
0.00368,0.00702
-0.5558537310825,-0.8295002804919,-0.05436832078965
*BEAM SECTION,ELSET=7A,MATERIAL=helical_ribs,SECTION=RECT
0.00368,0.00702
0.5558537310825,-0.8153073007118,-0.1621747053265
*BEAM SECTION,ELSET=7B,MATERIAL=helical_ribs,SECTION=RECT
0.00368,0.00702
-0.5558537310825,-0.7871641869706,-0.2672062356919
*BEAM SECTION,ELSET=7C,MATERIAL=helical_ribs,SECTION=RECT
0.00368,0.00702
-0.5558537310825,-0.7871641869706,-0.2672062356919
*BEAM SECTION,ELSET=7D,MATERIAL=helical_ribs,SECTION=RECT
0.00368,0.00702
0.5558537310825,-0.7455524757472,-0.367665793281
*BEAM SECTION,ELSET=7E,MATERIAL=helical_ribs,SECTION=RECT
0.00368,0.00702
0.5558537310825,-0.7455524757472,-0.367665793281
*BEAM SECTION,ELSET=7F,MATERIAL=helical_ribs,SECTION=RECT
0.00368,0.00702
-0.5558537310825,-0.6911841549575,-0.4618344872109
*BEAM SECTION,ELSET=80,MATERIAL=helical_ribs,SECTION=RECT
0.00368,0.00702
-0.5558537310825,-0.6911841549575,-0.4618344872109
*BEAM SECTION,ELSET=81,MATERIAL=helical_ribs,SECTION=RECT
0.00368,0.00702
0.5558537310825,-0.6249894816441,-0.5481010650199
*BEAM SECTION,ELSET=82,MATERIAL=helical_ribs,SECTION=RECT
0.00368,0.00702
0.5558537310825,-0.6249894816441,-0.5481010650199
*BEAM SECTION,ELSET=83,MATERIAL=helical_ribs,SECTION=RECT
0.00368,0.00702
-0.5558537310825,-0.5481010650199,-0.6249894816441
*BEAM SECTION,ELSET=84,MATERIAL=helical_ribs,SECTION=RECT
0.00368,0.00702
-0.5558537310825,-0.5481010650199,-0.6249894816441
*BEAM SECTION,ELSET=85,MATERIAL=helical_ribs,SECTION=RECT
0.00368,0.00702
0.5558537310825,-0.4618344872109,-0.6911841549575
*BEAM SECTION,ELSET=86,MATERIAL=helical_ribs,SECTION=RECT
0.00368,0.00702
0.5558537310825,-0.4618344872109,-0.6911841549575
*BEAM SECTION,ELSET=87,MATERIAL=helical_ribs,SECTION=RECT
0.00368,0.00702
-0.5558537310825,-0.367665793281,-0.7455524757472
*BEAM SECTION,ELSET=88,MATERIAL=helical_ribs,SECTION=RECT
0.00368,0.00702
-0.5558537310825,-0.367665793281,-0.7455524757472
*BEAM SECTION,ELSET=89,MATERIAL=helical_ribs,SECTION=RECT
0.00368,0.00702
0.5558537310825,-0.2672062356919,-0.7871641869706
*BEAM SECTION,ELSET=8A,MATERIAL=helical_ribs,SECTION=RECT
0.00368,0.00702
0.5558537310825,-0.2672062356919,-0.7871641869706
*BEAM SECTION,ELSET=8B,MATERIAL=helical_ribs,SECTION=RECT
0.00368,0.00702
-0.5558537310825,-0.1621747053265,-0.8153073007118
*BEAM SECTION,ELSET=8C,MATERIAL=helical_ribs,SECTION=RECT
0.00368,0.00702
-0.5558537310825,-0.1621747053265,-0.8153073007118
*BEAM SECTION,ELSET=8D,MATERIAL=helical_ribs,SECTION=RECT
0.00368,0.00702
0.5558537310825,-0.05436832078965,-0.8295002804919
*BEAM SECTION,ELSET=8E,MATERIAL=helical_ribs,SECTION=RECT
0.00368,0.00702
0.5558537310825,-0.05436832078965,-0.8295002804919
*BEAM SECTION,ELSET=8F,MATERIAL=helical_ribs,SECTION=RECT
0.00368,0.00702
-0.5558537310825,0.05436832078965,-0.8295002804919
*BEAM SECTION,ELSET=90,MATERIAL=helical_ribs,SECTION=RECT
0.00368,0.00702
-0.5558537310825,0.05436832078965,-0.8295002804919
*BEAM SECTION,ELSET=91,MATERIAL=helical_ribs,SECTION=RECT
0.00368,0.00702
0.5558537310825,0.05436832078965,-0.8295002804919
*BEAM SECTION,ELSET=92,MATERIAL=helical_ribs,SECTION=RECT
0.00368,0.00702
-0.5558537310825,0.2672062356919,0.7871641869706
*BEAM SECTION,ELSET=93,MATERIAL=helical_ribs,SECTION=RECT
0.00368,0.00702
0.5558537310825,0.1621747053265,0.8153073007118
*BEAM SECTION,ELSET=94,MATERIAL=helical_ribs,SECTION=RECT
0.00368,0.00702
-0.5558537310825,0.05436832078965,0.8295002804919
*BEAM SECTION,ELSET=95,MATERIAL=helical_ribs,SECTION=RECT
0.00368,0.00702
0.5558537310825,-0.05436832078965,0.8295002804919
*BEAM SECTION,ELSET=96,MATERIAL=helical_ribs,SECTION=RECT
0.00368,0.00702
-0.5558537310825,-0.1621747053265,0.8153073007118
*BEAM SECTION,ELSET=97,MATERIAL=helical_ribs,SECTION=RECT
0.00368,0.00702
0.5558537310825,-0.2672062356919,0.7871641869706
*BEAM SECTION,ELSET=98,MATERIAL=helical_ribs,SECTION=RECT
0.00368,0.00702
-0.5558537310825,-0.367665793281,0.7455524757472
*BEAM SECTION,ELSET=99,MATERIAL=helical_ribs,SECTION=RECT
0.00368,0.00702
0.5558537310825,-0.4618344872109,0.6911841549575
*BEAM SECTION,ELSET=9A,MATERIAL=helical_ribs,SECTION=RECT
0.00368,0.00702
-0.5558537310825,-0.5481010650199,0.6249894816441
*BEAM SECTION,ELSET=9B,MATERIAL=helical_ribs,SECTION=RECT
0.00368,0.00702
0.5558537310825,-0.6249894816441,0.5481010650199
*BEAM SECTION,ELSET=9C,MATERIAL=helical_ribs,SECTION=RECT
0.00368,0.00702
-0.5558537310825,-0.7871641869706,0.2672062356919
*BEAM SECTION,ELSET=9D,MATERIAL=helical_ribs,SECTION=RECT
0.00368,0.00702
0.5558537310825,-0.8153073007118,0.1621747053265
*BEAM SECTION,ELSET=9E,MATERIAL=helical_ribs,SECTION=RECT
0.00368,0.00702
-0.5558537310825,-0.8295002804919,0.05436832078965
*BEAM SECTION,ELSET=9F,MATERIAL=helical_ribs,SECTION=RECT
0.00368,0.00702
0.5558537310825,-0.8295002804919,-0.05436832078965
*BEAM SECTION,ELSET=A0,MATERIAL=helical_ribs,SECTION=RECT
0.00368,0.00702
-0.5558537310825,-0.8153073007118,-0.1621747053265
*BEAM SECTION,ELSET=A1,MATERIAL=helical_ribs,SECTION=RECT
0.00368,0.00702
0.5558537310825,-0.7871641869706,-0.2672062356919
*BEAM SECTION,ELSET=A2,MATERIAL=helical_ribs,SECTION=RECT
0.00368,0.00702
0.5558537310825,0.2672062356919,0.7871641869706
*BEAM SECTION,ELSET=A3,MATERIAL=helical_ribs,SECTION=RECT
0.00368,0.00702
-0.5558537310825,0.1621747053265,0.8153073007118
*BEAM SECTION,ELSET=A4,MATERIAL=helical_ribs,SECTION=RECT
0.00368,0.00702
0.5558537310825,-0.8295002804919,0.05436832078965
*BEAM SECTION,ELSET=b_circ_ribs,MATERIAL=circ_ribs,SECTION=RECT
0.00078,0.00702
1,0,0
*BEAM SECTION,ELSET=b_terminal_ribs,MATERIAL=terminal_ribs,SECTION=RECT
0.00312,0.02808
1,0,0
*BOUNDARY
1,1,,0
1,2,,0
1,3,,0
1,4,,0
1,5,,0
1,6,,0
4,1,,0
4,2,,0
4,3,,0
4,4,,0
4,5,,0
4,6,,0
11,1,,0
11,2,,0
11,3,,0
11,4,,0
11,5,,0
11,6,,0
14,1,,0
14,2,,0
** ... 124 like lines cut
*STEP
*BUCKLE
3
*CLOAD
1374,1,-10791.66666667
1375,1,-10791.66666667
1379,1,-10791.66666667
1381,1,-10791.66666667
1382,1,-10791.66666667
1384,1,-10791.66666667
1387,1,-10791.66666667
1389,1,-10791.66666667
1390,1,-10791.66666667
1392,1,-10791.66666667
52,1,-10791.66666667
151,1,-10791.66666667
348,1,-10791.66666667
445,1,-10791.66666667
544,1,-10791.66666667
641,1,-10791.66666667
642,1,-10791.66666667
740,1,-10791.66666667
935,1,-10791.66666667
1033,1,-10791.66666667
** ... 4 like lines cut
*NODE FILE,GLOBAL=YES
U
*END STEP
