** Generated by Mecway 15.0
*NODE
1,0.9342857142857,-0.1,0
2,0.9342857142857,0.1,0
3,0.6228571428571,0.1,0
4,0.4671428571429,-0.1,0
5,0.545,0.05,0
6,0.4671428571429,-0.2,0
7,0.6228571428571,0.2,0
8,0.4671428571429,0,0
9,0.7785714285714,-0.2,0
10,0.6228571428571,-0.1,0
11,0.8564285714286,-0.15,0
12,0.9342857142857,0.2,0
13,0.8564285714286,0.05,0
14,0.8564285714286,0.15,0
15,0.7785714285714,0.2,0
16,0.7785714285714,0.1,0
17,0.7007142857143,0.05,0
18,0.4671428571429,0.1,0
19,0.9342857142857,-0.2,0
20,0.7007142857143,-0.05,0
** ... 231 like lines cut
*ELEMENT,TYPE=B32R
1,69,179,22
2,3,180,70
3,70,181,30
4,3,182,71
5,71,183,5
6,27,184,72
7,72,185,9
8,27,186,73
9,73,187,11
10,27,188,74
11,74,189,20
12,27,190,75
13,75,191,23
14,20,192,76
15,76,193,23
16,20,194,77
17,77,195,10
18,20,196,78
19,78,197,22
20,11,198,79
** ... 126 like lines cut
*NSET,NSET=force_nodes
1
2
12
19
25
*NSET,NSET=displacement_nodes
4
6
8
18
28
*NSET,NSET=displacement_nodes(2)
4
6
8
18
28
*ELSET,ELSET=displacement_elements
1
2
3
4
5
6
7
8
9
10
11
12
13
14
15
16
17
18
19
20
** ... 126 like lines cut
*ELSET,ELSET=1
2
3
10
11
18
19
26
27
32
33
40
41
44
45
48
49
50
51
60
61
** ... 16 like lines cut
*ELSET,ELSET=2
4
5
12
13
16
17
20
21
24
25
34
35
42
43
46
47
54
55
58
59
** ... 28 like lines cut
*ELSET,ELSET=3
8
9
22
23
82
83
92
93
120
121
130
131
*ELSET,ELSET=a
1
6
7
14
15
28
29
30
31
36
37
38
39
52
53
56
57
62
63
64
** ... 30 like lines cut
*MATERIAL,NAME=b
*ELASTIC,TYPE=ISOTROPIC
200000000000,0
*MATERIAL,NAME=a
*ELASTIC,TYPE=ISOTROPIC
200000000000,0
*BEAM SECTION,ELSET=1,MATERIAL=b,SECTION=RECT
0.01,0.01
-0.5403673761964,-0.8414292000773,0
*BEAM SECTION,ELSET=2,MATERIAL=b,SECTION=RECT
0.01,0.01
0.5403673761963,-0.8414292000773,0
*BEAM SECTION,ELSET=3,MATERIAL=b,SECTION=RECT
0.01,0.01
0.5403673761963,0.8414292000772,0
*BEAM SECTION,ELSET=a,MATERIAL=a,SECTION=RECT
0.001,0.01
1,0,0
*BOUNDARY
1,3,,0
2,3,,0
3,3,,0
4,1,,0
4,2,,0
4,3,,0
5,3,,0
6,1,,0
6,2,,0
6,3,,0
7,3,,0
8,1,,0
8,2,,0
8,3,,0
9,3,,0
10,3,,0
11,3,,0
12,3,,0
13,3,,0
14,3,,0
** ... 241 like lines cut
*STEP
*BUCKLE
5
*CLOAD
19,1,-60000
1,1,-60000
2,1,-60000
12,1,-60000
25,1,-60000
*NODE FILE,GLOBAL=YES
U
*END STEP
