**
**   Structure: spring + mass.
**   Test objective: modal dynamic calculation of a spring-mass
**                   system
**
*NODE,NSET=NALL
1,0.,0.,0.
2,1.,0.,0.
3,1.,-.1,.1
4,1.2,-.1,.1
5,1.2,-.1,-.1
6,1.,-.1,-.1
7,1.,.1,.1
8,1.2,.1,.1
9,1.2,.1,-.1
10,1.,.1,-.1
*ELEMENT,TYPE=SPRINGA,ELSET=ESPRING
1,1,2
*ELEMENT,TYPE=C3D8,ELSET=EMASSA
2,3,4,5,6,7,8,9,10
*BOUNDARY
1,1,3
2,2,3
*NSET,NSET=NMASSA,GENERATE
3,10
*NSET,NSET=ENDOFSPRING
2
*BOUNDARY
NMASSA,2,3
*SPRING,ELSET=ESPRING

10.
*MATERIAL,NAME=EL
*ELASTIC
210000.,.3
*DENSITY
7.8E-9
*SOLID SECTION,ELSET=EMASSA,MATERIAL=EL
*EQUATION
5
2,1,1.,3,1,-.25,6,1,-.25,7,1,-.25,
10,1,-.25
*AMPLITUDE, NAME=A1
0.,0.,1.,50000.
*AMPLITUDE, NAME=A1EQU, EQUATION
50000.*T
*AMPLITUDE, NAME=EQUCONST, EQUATION
50000.
** +++++++++++++++++++++++++++++++++++++++++++
*STEP
*FREQUENCY,STORAGE=YES
1
*END STEP
** +++++++++++++++++++++++++++++++++++++++++++
*STEP,INC=200
*MODAL DYNAMIC
1.e-7,2.e-5
** Ccx 2.23 manual:
** The loading
** defined within the step is multiplied by the amplitude history for each load as
** specified by the AMPLITUDE parameter on the loading card, if any. If no
** amplitude applies all loading is applied at the start of the step. Loading histories
** extending beyond the amplitude time scale are extrapolated in a constant
** way. The absence of the AMPLITUDE parameter on a loading card leads to a
** constant load.
*CLOAD, AMPLITUDE=EQUCONST
4,1,1.
5,1,1.
8,1,1.
9,1,1.
*NODE PRINT,NSET=ENDOFSPRING
U
*END STEP
