*INCLUDE, INPUT=allinone.msh

*MATERIAL,NAME=Steel
*ELASTIC
2.9000E+07,0.3
*DENSITY
7.3500E-04

*SHELL SECTION,MATERIAL=Steel,ELSET=Eall,OFFSET=0.0000E+00
3.7500E-01

*BOUNDARY
fix,1,1,0
fix,2,2,0
fix,3,3,0

*BOUNDARY
fixz,3,3,0

*AMPLITUDE,NAME=AMPL_CONST_EQU, EQUATION
2.

*STEP
*BUCKLE
3

** Load was applied before adding mid-nodes
*CLOAD, AMPLITUDE=AMPL_CONST_EQU
load,2,-4.4964E+01

*NODE FILE 
U,
*END STEP




